Version 4
SHEET 1 11460 3748
WIRE -624 352 -640 352
WIRE -432 352 -624 352
WIRE 160 352 -432 352
WIRE 608 352 160 352
WIRE 608 384 608 352
WIRE 80 512 -32 512
WIRE 288 512 80 512
WIRE 608 512 608 464
WIRE 608 512 368 512
WIRE 160 544 160 352
WIRE 80 560 80 512
WIRE 128 560 80 560
WIRE 608 576 608 512
WIRE 608 576 192 576
WIRE 128 592 80 592
WIRE -624 608 -624 352
WIRE -32 624 -32 512
WIRE -432 640 -432 352
WIRE -432 752 -432 720
WIRE 80 752 80 592
WIRE 80 752 -432 752
WIRE 352 752 80 752
WIRE 608 752 608 576
WIRE 608 752 432 752
WIRE -432 784 -432 752
WIRE -624 960 -624 688
WIRE -432 960 -432 864
WIRE -432 960 -624 960
WIRE -32 960 -32 688
WIRE -32 960 -432 960
WIRE 160 960 160 608
WIRE 160 960 -32 960
WIRE 80 1152 -48 1152
WIRE 320 1152 160 1152
WIRE -48 1264 -48 1152
WIRE 48 1264 -48 1264
WIRE 320 1264 320 1152
WIRE 320 1264 160 1264
WIRE -48 1328 -48 1264
WIRE -48 1472 -48 1392
FLAG -32 960 0
FLAG -48 1472 0
SYMBOL voltage -624 592 M0
WINDOW 123 0 0 Left 0
WINDOW 39 0 0 Left 0
SYMATTR InstName V5
SYMATTR Value 3.6
SYMBOL ZZZ\\Comparator\\LM339A_TI 160 576 R0
SYMATTR InstName U1
SYMBOL res -448 768 R0
SYMATTR InstName R1
SYMATTR Value 100k
SYMBOL res -448 624 R0
SYMATTR InstName R2
SYMATTR Value 100k
SYMBOL res 448 736 R90
WINDOW 0 0 56 VBottom 2
WINDOW 3 32 56 VTop 2
SYMATTR InstName R3
SYMATTR Value 100k
SYMBOL res 384 496 R90
WINDOW 0 0 56 VBottom 2
WINDOW 3 32 56 VTop 2
SYMATTR InstName R4
SYMATTR Value 150k
SYMBOL cap -48 624 R0
SYMATTR InstName C2
SYMATTR Value 100p
SYMBOL res 624 480 R180
WINDOW 0 36 76 Left 2
WINDOW 3 36 40 Left 2
SYMATTR InstName R5
SYMATTR Value 1k
SYMBOL ZZZ\\LOGIC\\74HC\\74hc14 96 1216 R0
SYMATTR InstName U2
SYMBOL cap -64 1328 R0
SYMATTR InstName C1
SYMATTR Value 100p
SYMBOL res 176 1136 R90
WINDOW 0 0 56 VBottom 2
WINDOW 3 32 56 VTop 2
SYMATTR InstName R7
SYMATTR Value 150k
TEXT -1000 880 Left 2 !.param fsw = 40k
TEXT -1000 912 Left 2 !.param d = 0.5
TEXT -1000 848 Left 2 !.param Cf = 10u
TEXT -1000 944 Left 2 !.tran 10m
TEXT 256 1128 Left 2 !.param vcc = 3.3
