Version 4
SHEET 1 11460 3748
WIRE -896 -368 -960 -368
WIRE -720 -368 -816 -368
WIRE -560 -368 -720 -368
WIRE -432 -368 -560 -368
WIRE -560 -352 -560 -368
WIRE -128 -352 -272 -352
WIRE 128 -352 -48 -352
WIRE -720 -288 -720 -368
WIRE -432 -288 -432 -368
WIRE -560 -240 -560 -272
WIRE -560 -240 -656 -240
WIRE -560 -208 -560 -240
WIRE 128 -192 128 -352
WIRE -720 -160 -720 -192
WIRE -720 -160 -768 -160
WIRE -624 -160 -720 -160
WIRE -960 -80 -960 -368
WIRE -768 -64 -768 -160
WIRE -272 -64 -272 -352
WIRE -560 -32 -560 -112
WIRE -560 -32 -704 -32
WIRE -432 -32 -432 -208
WIRE -432 -32 -560 -32
WIRE 128 -16 128 -112
WIRE 128 -16 -16 -16
WIRE -768 48 -768 16
WIRE -16 48 -16 -16
WIRE -704 64 -704 -32
WIRE -960 128 -960 0
WIRE -560 128 -560 -32
WIRE -272 144 -272 16
WIRE 128 144 128 -16
WIRE -704 176 -704 144
WIRE -624 176 -704 176
WIRE -16 192 -16 128
WIRE 64 192 -16 192
WIRE -704 240 -704 176
WIRE -16 256 -16 192
WIRE -704 352 -704 320
WIRE -560 352 -560 224
WIRE -16 368 -16 336
WIRE 128 368 128 240
FLAG 128 368 0
FLAG -16 368 0
FLAG -272 144 0
FLAG -560 352 0
FLAG -704 352 0
FLAG -960 128 0
FLAG -768 48 0
SYMBOL npn 64 144 R0
SYMATTR InstName Q5
SYMATTR Value 2N3904
SYMBOL res 0 144 R180
WINDOW 0 36 76 Left 2
WINDOW 3 36 40 Left 2
SYMATTR InstName R9
SYMATTR Value 51k
SYMBOL res 0 352 R180
WINDOW 0 36 76 Left 2
WINDOW 3 36 40 Left 2
SYMATTR InstName R10
SYMATTR Value 10k
SYMBOL voltage -272 -80 M0
WINDOW 123 0 0 Left 0
WINDOW 39 0 0 Left 0
SYMATTR InstName V1
SYMATTR Value {Vbat}
SYMBOL res -32 -368 R90
WINDOW 0 0 56 VBottom 2
WINDOW 3 32 56 VTop 2
SYMATTR InstName R11
SYMATTR Value 1k
SYMBOL current 128 -192 R0
WINDOW 123 0 0 Left 0
WINDOW 39 0 0 Left 0
SYMATTR InstName I1
SYMATTR Value 500µ
SYMBOL npn -624 128 R0
SYMATTR InstName Q6
SYMATTR Value 2N3904
SYMBOL res -688 160 R180
WINDOW 0 36 76 Left 2
WINDOW 3 36 40 Left 2
SYMATTR InstName R12
SYMATTR Value 510k
SYMBOL res -688 336 R180
WINDOW 0 36 76 Left 2
WINDOW 3 36 40 Left 2
SYMATTR InstName R13
SYMATTR Value 100k
SYMBOL voltage -960 -96 M0
WINDOW 123 0 0 Left 0
WINDOW 39 0 0 Left 0
SYMATTR InstName V2
SYMATTR Value {Vbat}
SYMBOL res -800 -384 R90
WINDOW 0 0 56 VBottom 2
WINDOW 3 32 56 VTop 2
SYMATTR InstName R14
SYMATTR Value 1k
SYMBOL pnp -624 -112 M180
SYMATTR InstName Q7
SYMATTR Value 2N3906
SYMBOL pnp -656 -192 R180
SYMATTR InstName Q8
SYMATTR Value 2N3906
SYMBOL res -544 -256 R180
WINDOW 0 36 76 Left 2
WINDOW 3 36 40 Left 2
SYMATTR InstName R15
SYMATTR Value 1k
SYMBOL res -752 32 R180
WINDOW 0 36 76 Left 2
WINDOW 3 36 40 Left 2
SYMATTR InstName R16
SYMATTR Value 100k
SYMBOL res -416 -192 R180
WINDOW 0 36 76 Left 2
WINDOW 3 36 40 Left 2
SYMATTR InstName R17
SYMATTR Value 100k
TEXT -1000 880 Left 2 !.param fsw = 40k
TEXT -1000 912 Left 2 !.param d = 0.5
TEXT -1000 848 Left 2 !.param Cf = 10u
TEXT -1000 944 Left 2 !.tran 10m
TEXT -1536 112 Left 2 !.lib AO3400.mod
TEXT -1184 528 Left 2 !.step param Vbat list 3 3.3 3.6 3.9 4.2
